[TITLE]

[JUNCTIONS]
;ID  Elev  Demand  Pattern
;-------------------------
10 147.0 0.0
101 42.0 189.95
103 43.0 133.2
105 28.5 135.37
107 22.0 54.64
109 20.3 231.4
111 10.0 141.94
113 2.0 20.01
115 14.0 52.1
117 13.6 117.71
119 2.0 176.13
120 0.0 0.0
121 -2.0 41.63
123 11.0 1.0 2
125 11.0 45.6
127 56.0 17.66
129 51.0 0.0
131 6.0 42.75
139 31.0 5.89
141 4.0 9.85
143 -4.5 6.2
145 1.0 27.63
147 18.5 8.55
149 16.0 27.07
15 32.0 1.0 3
151 33.5 144.48
153 66.2 44.17
157 13.1 51.79
159 6.0 41.32
161 4.0 15.8
163 5.0 9.42
164 5.0 0.0
166 -2.0 2.6
167 -5.0 14.56
169 -5.0 0.0
171 -4.0 39.34
173 -4.0 0.0
177 8.0 58.17
179 8.0 0.0
181 8.0 0.0
183 11.0 0.0
184 16.0 0.0
185 16.0 25.65
187 12.5 0.0
189 4.0 107.92
191 25.0 81.9
193 18.0 71.31
195 15.5 0.0
197 23.0 17.04
199 -2.0 119.32
20 129.0 0.0
201 0.1 44.61
203 2.0 1.0 5
204 21.0 0.0
205 21.0 65.36
206 1.0 0.0
207 9.0 69.39
208 16.0 0.0
209 -2.0 0.87
211 7.0 8.67
213 7.0 13.94
215 7.0 92.19
217 6.0 24.22
219 4.0 41.32
225 8.0 22.8
229 10.5 64.18
231 5.0 16.48
237 14.0 15.61
239 13.0 44.61
241 13.0 0.0
243 14.0 4.34
247 18.0 70.38
249 18.0 0.0
251 30.0 24.16
253 36.0 54.52
255 27.0 40.39
257 17.0 0.0
259 25.0 0.0
261 0.0 0.0
263 0.0 0.0
265 0.0 0.0
267 21.0 0.0
269 0.0 0.0
271 6.0 0.0
273 8.0 0.0
275 10.0 0.0
35 12.5 1.0 4
40 131.9 0.0
50 116.5 0.0
60 0.0 0.0
601 0.0 0.0
61 0.0 0.0

[RESERVOIRS]
;ID  Head  Pattern
;-----------------
Lake 167.0
River 220.0

[TANKS]
;ID  Elev.  InitLvl  MinLvl  MaxLvl  Diam  MinVol  Curve
;-------------------------------------------------------
1 131.9 13.1 0.1 32.1 85.0 0.0
2 116.5 23.5 6.5 40.3 50.0 0.0
3 129.0 29.0 4.0 35.5 164.0 0.0

[PIPES]
;ID  SNode  ENode  Len  Diam  Roughness  Mloss  Status
;-----------------------------------------------------
101 10 101 14200.0 18.0 110.0 0.0 OPEN
103 101 103 1350.0 16.0 130.0 0.0 OPEN
105 101 105 2540.0 12.0 130.0 0.0 OPEN
107 105 107 1470.0 12.0 130.0 0.0 OPEN
109 103 109 3940.0 16.0 130.0 0.0 OPEN
111 109 111 2000.0 12.0 130.0 0.0 OPEN
112 115 111 1160.0 12.0 130.0 0.0 OPEN
113 111 113 1680.0 12.0 130.0 0.0 OPEN
114 115 113 2000.0 8.0 130.0 0.0 OPEN
115 107 115 1950.0 8.0 130.0 0.0 OPEN
116 113 193 1660.0 12.0 130.0 0.0 OPEN
117 263 105 2725.0 12.0 130.0 0.0 OPEN
119 115 117 2180.0 12.0 130.0 0.0 OPEN
120 119 120 730.0 12.0 130.0 0.0 OPEN
121 120 117 1870.0 12.0 130.0 0.0 OPEN
122 121 120 2050.0 8.0 130.0 0.0 OPEN
123 121 119 2000.0 30.0 141.0 0.0 OPEN
125 123 121 1500.0 30.0 141.0 0.0 OPEN
129 121 125 930.0 24.0 130.0 0.0 OPEN
131 125 127 3240.0 24.0 130.0 0.0 OPEN
133 20 127 785.0 20.0 130.0 0.0 OPEN
135 127 129 900.0 24.0 130.0 0.0 OPEN
137 129 131 6480.0 16.0 130.0 0.0 OPEN
145 129 139 2750.0 8.0 130.0 0.0 OPEN
147 139 141 2050.0 8.0 130.0 0.0 OPEN
149 143 141 1400.0 8.0 130.0 0.0 OPEN
151 15 143 1650.0 8.0 130.0 0.0 OPEN
153 145 141 3510.0 12.0 130.0 0.0 OPEN
155 147 145 2200.0 12.0 130.0 0.0 OPEN
159 147 149 880.0 12.0 130.0 0.0 OPEN
161 149 151 1020.0 8.0 130.0 0.0 OPEN
163 151 153 1170.0 12.0 130.0 0.0 OPEN
169 125 153 4560.0 8.0 130.0 0.0 OPEN
171 119 151 3460.0 12.0 130.0 0.0 OPEN
173 119 157 2080.0 30.0 141.0 0.0 OPEN
175 157 159 2910.0 30.0 141.0 0.0 OPEN
177 159 161 2000.0 30.0 141.0 0.0 OPEN
179 161 163 430.0 30.0 141.0 0.0 OPEN
180 163 164 150.0 14.0 130.0 0.0 OPEN
181 164 166 490.0 14.0 130.0 0.0 OPEN
183 265 169 590.0 30.0 141.0 0.0 OPEN
185 167 169 60.0 8.0 130.0 0.0 OPEN
186 187 204 99.9 8.0 130.0 0.0 OPEN
187 169 171 1270.0 30.0 141.0 0.0 OPEN
189 171 173 50.0 30.0 141.0 0.0 OPEN
191 271 171 760.0 24.0 130.0 0.0 OPEN
193 35 181 30.0 24.0 130.0 0.0 OPEN
195 181 177 30.0 12.0 130.0 0.0 OPEN
197 177 179 30.0 12.0 130.0 0.0 OPEN
199 179 183 210.0 12.0 130.0 0.0 OPEN
20 3 20 99.0 99.0 199.0 0.0 OPEN
201 40 179 1190.0 12.0 130.0 0.0 OPEN
202 185 184 99.9 8.0 130.0 0.0 OPEN
203 183 185 510.0 8.0 130.0 0.0 OPEN
204 184 205 4530.0 12.0 130.0 0.0 OPEN
205 204 185 1325.0 12.0 130.0 0.0 OPEN
207 189 183 1350.0 12.0 130.0 0.0 OPEN
209 189 187 500.0 8.0 130.0 0.0 OPEN
211 169 269 646.0 12.0 130.0 0.0 OPEN
213 191 187 2560.0 12.0 130.0 0.0 OPEN
215 267 189 1230.0 12.0 130.0 0.0 OPEN
217 191 193 520.0 12.0 130.0 0.0 OPEN
219 193 195 360.0 12.0 130.0 0.0 OPEN
221 161 195 2300.0 8.0 130.0 0.0 OPEN
223 197 191 1150.0 12.0 130.0 0.0 OPEN
225 111 197 2790.0 12.0 130.0 0.0 OPEN
229 173 199 4000.0 24.0 141.0 0.0 OPEN
231 199 201 630.0 24.0 141.0 0.0 OPEN
233 201 203 120.0 24.0 130.0 0.0 OPEN
235 199 273 725.0 12.0 130.0 0.0 OPEN
237 205 207 1200.0 12.0 130.0 0.0 OPEN
238 207 206 450.0 12.0 130.0 0.0 OPEN
239 275 207 1430.0 12.0 130.0 0.0 OPEN
240 206 208 510.0 12.0 130.0 0.0 OPEN
241 208 209 885.0 12.0 130.0 0.0 OPEN
243 209 211 1210.0 16.0 130.0 0.0 OPEN
245 211 213 990.0 16.0 130.0 0.0 OPEN
247 213 215 4285.0 16.0 130.0 0.0 OPEN
249 215 217 1660.0 16.0 130.0 0.0 OPEN
251 217 219 2050.0 14.0 130.0 0.0 OPEN
257 217 225 1560.0 12.0 130.0 0.0 OPEN
261 213 229 2200.0 8.0 130.0 0.0 OPEN
263 229 231 1960.0 12.0 130.0 0.0 OPEN
269 211 237 2080.0 12.0 130.0 0.0 OPEN
271 237 229 790.0 8.0 130.0 0.0 OPEN
273 237 239 510.0 12.0 130.0 0.0 OPEN
275 239 241 35.0 12.0 130.0 0.0 OPEN
277 241 243 2200.0 12.0 130.0 0.0 OPEN
281 241 247 445.0 10.0 130.0 0.0 OPEN
283 239 249 430.0 12.0 130.0 0.0 OPEN
285 247 249 10.0 12.0 130.0 0.0 OPEN
287 247 255 1390.0 10.0 130.0 0.0 OPEN
289 50 255 925.0 10.0 130.0 0.0 OPEN
291 255 253 1100.0 10.0 130.0 0.0 OPEN
293 255 251 1100.0 8.0 130.0 0.0 OPEN
295 249 251 1450.0 12.0 130.0 0.0 OPEN
297 120 257 645.0 8.0 130.0 0.0 OPEN
299 257 259 350.0 8.0 130.0 0.0 OPEN
301 259 263 1400.0 8.0 130.0 0.0 OPEN
303 257 261 1400.0 8.0 130.0 0.0 OPEN
305 117 261 645.0 12.0 130.0 0.0 OPEN
307 261 263 350.0 12.0 130.0 0.0 OPEN
309 265 267 1580.0 8.0 130.0 0.0 OPEN
311 193 267 1170.0 12.0 130.0 0.0 OPEN
313 269 189 646.0 12.0 130.0 0.0 OPEN
315 181 271 260.0 24.0 130.0 0.0 OPEN
317 273 275 2230.0 8.0 130.0 0.0 OPEN
319 273 205 645.0 12.0 130.0 0.0 OPEN
321 163 265 1200.0 30.0 141.0 0.0 OPEN
323 201 275 300.0 12.0 130.0 0.0 OPEN
325 269 271 1290.0 8.0 130.0 0.0 OPEN
329 61 123 45500.0 30.0 140.0 0.0 OPEN
330 60 601 1.0 30.0 140.0 0.0 CLOSED
333 601 61 1.0 30.0 140.0 0.0 OPEN
40 1 40 99.0 99.0 199.0 0.0 OPEN
50 2 50 99.0 99.0 199.0 0.0 OPEN
60 River 60 1231.0 24.0 140.0 0.0 OPEN

[PUMPS]
;ID  SNode  ENode  Properties
;----------------------------
10 Lake 10 HEAD 1
335 60 61 HEAD 2

[VALVES]
;ID  SNode  ENode  Diam  Type  Setting  Mloss
;--------------------------------------------

[EMITTERS]
;ID  FlowCoeff
;-------------

[CURVES]

1 0.0 104.0
1 2000.0 92.0
1 4000.0 63.0

2 0.0 200.0
2 8000.0 138.0
2 14000.0 86.0

[PATTERNS]
1 1.34 1.94 1.46 1.44 0.76 0.92
1 0.85 1.07 0.96 1.1 1.08 1.19
1 1.16 1.08 0.96 0.83 0.79 0.74
1 0.64 0.64 0.85 0.96 1.24 1.67
2 0.0 0.0 0.0 0.0 0.0 1219.0
2 0.0 0.0 0.0 1866.0 1836.0 1818.0
2 1818.0 1822.0 1822.0 1817.0 1824.0 1816.0
2 1833.0 1817.0 1830.0 1814.0 1840.0 1859.0
3 620.0 620.0 620.0 620.0 620.0 360.0
3 360.0 0.0 0.0 0.0 0.0 360.0
3 360.0 360.0 360.0 360.0 0.0 0.0
3 0.0 0.0 0.0 0.0 360.0 360.0
4 1637.0 1706.0 1719.0 1719.0 1791.0 1819.0
4 1777.0 1842.0 1815.0 1825.0 1856.0 1801.0
4 1819.0 1733.0 1664.0 1620.0 1613.0 1620.0
4 1616.0 1647.0 1627.0 1627.0 1671.0 1668.0
5 4439.0 4531.0 4511.0 4582.0 4531.0 4582.0
5 4572.0 4613.0 4643.0 4643.0 4592.0 4613.0
5 4531.0 4521.0 4449.0 4439.0 4449.0 4460.0
5 4439.0 4419.0 4368.0 4399.0 4470.0 4480.0

[ENERGY]
GLOBAL PRICE 0.0
GLOBAL EFFICIENCY 75.0
DEMAND CHARGE 0.0

[STATUS]
;Link  Status/Setting
;--------------------
10 CLOSED



[CONTROLS]
Link 330 CLOSED IF Node 1 BELOW 17.1
Link 330 OPEN IF Node 1 ABOVE 19.1

Link 10 OPEN AT TIME 1
Link 10 CLOSED AT TIME 15
Link 10 OPEN AT TIME 25
Link 10 CLOSED AT TIME 39
Link 10 OPEN AT TIME 49
Link 10 CLOSED AT TIME 63
Link 10 OPEN AT TIME 73
Link 10 CLOSED AT TIME 87
Link 335 OPEN IF Node 1 BELOW 17.1
Link 335 CLOSED IF Node 1 ABOVE 19.1


[RULES]

[DEMANDS]
;ID  Demand Pattern Category
;---------------------------
10 0.0
101 189.95
103 133.2
105 135.37
107 54.64
109 231.4
111 141.94
113 20.01
115 52.1
117 117.71
119 176.13
120 0.0
121 41.63
123 1.0 2
125 45.6
127 17.66
129 0.0
131 42.75
139 5.89
141 9.85
143 6.2
145 27.63
147 8.55
149 27.07
15 1.0 3
151 144.48
153 44.17
157 51.79
159 41.32
161 15.8
163 9.42
164 0.0
166 2.6
167 14.56
169 0.0
171 39.34
173 0.0
177 58.17
179 0.0
181 0.0
183 0.0
184 0.0
185 25.65
187 0.0
189 107.92
191 81.9
193 71.31
195 0.0
197 17.04
199 119.32
20 0.0
201 44.61
203 1.0 5
204 0.0
205 65.36
206 0.0
207 69.39
208 0.0
209 0.87
211 8.67
213 13.94
215 92.19
217 24.22
219 41.32
225 22.8
229 64.18
231 16.48
237 15.61
239 44.61
241 0.0
243 4.34
247 70.38
249 0.0
251 24.16
253 54.52
255 40.39
257 0.0
259 0.0
261 0.0
263 0.0
265 0.0
267 0.0
269 0.0
271 0.0
273 0.0
275 0.0
35 1.0 4
40 0.0
50 0.0
60 0.0
601 0.0
61 0.0

[QUALITY]
;ID  InitQuality
;---------------

[REACTIONS]
ORDER BULK 0
ORDER WALL 0
ORDER TANK 0
GLOBAL BULK 0.0
GLOBAL WALL 0.0
LIMITING POTENTIAL 0.0
ROUGHNESS CORRELATION 0.0

[SOURCES]
;Node  Type  Strength  Pattern
;-----------------------------

[MIXING]




[OPTIONS]
UNITS GPM
HEADLOSS H-W
QUALITY CHEMICAL
VISCOSITY 1.0
DIFFUSIVITY 1.0
SPECIFIC GRAVITY 1.0
TRIALS 40
ACCURACY 0.0010
UNBALANCED CONTINUE 10
PATTERN 1
DEMAND MULTIPLIER 1.0
EMITTER EXPONENT 0.5
TOLERANCE 0.01

[TIMES]
DURATION 96 HOURS
HYDRAULIC TIMESTEP 1 HOURS
QUALITY TIMESTEP 5 MIN
PATTERN TIMESTEP 1 HOURS
PATTERN START 0 HOURS
REPORT TIMESTEP 1 HOURS
REPORT START 0 HOURS
START CLOCKTIME 12:00 AM
STATISTIC NONE

[COORDINATES]
;ID  InitQuality
;---------------
10 9.0 27.85
101 13.81 22.94
103 12.96 21.31
105 16.97 21.28
107 18.45 20.46
109 17.64 18.92
111 20.21 17.53
113 22.04 16.61
115 20.98 19.18
117 21.69 21.28
119 23.7 22.76
120 22.08 23.1
121 23.54 25.5
123 23.37 27.31
125 24.59 25.64
127 29.29 26.4
129 30.32 26.39
131 37.89 29.55
139 33.28 24.54
141 35.68 23.08
143 37.47 21.97
145 33.02 19.29
147 30.24 20.38
149 29.62 20.74
15 38.68 23.76
151 28.29 21.39
153 28.13 22.63
157 24.85 20.16
159 23.12 17.5
161 25.1 15.28
163 25.39 14.98
164 25.98 15.14
166 26.48 15.13
167 25.88 12.98
169 25.68 12.74
171 26.65 11.8
173 26.87 11.59
179 25.71 10.4
181 25.72 10.74
183 25.45 10.18
184 25.15 9.52
185 25.01 9.67
187 23.64 11.04
189 24.15 11.37
191 22.1 14.07
193 22.88 14.35
195 23.18 14.72
197 20.97 15.18
199 29.42 8.44
20 29.44 26.91
201 30.89 8.57
203 31.14 8.89
204 23.8 10.9
205 29.2 6.46
206 31.66 6.64
207 31.0 6.61
208 32.54 6.81
209 33.76 6.59
211 34.2 5.54
213 35.26 6.16
215 39.95 8.73
217 42.11 8.67
219 44.86 9.32
225 43.53 7.38
229 36.16 3.49
231 38.38 2.54
237 35.37 3.08
239 35.76 2.31
241 35.87 2.11
243 37.04 0.0
247 35.02 2.05
249 35.02 1.81
251 34.15 1.1
253 32.17 1.88
255 33.51 2.45
257 21.17 23.32
259 20.8 23.4
261 20.79 21.45
263 20.32 21.57
265 25.39 13.6
267 23.38 12.95
269 25.03 12.14
271 25.97 11.0
273 29.16 7.38
275 31.07 8.29
35 25.46 10.52
40 27.02 9.81
50 33.01 3.01
60 23.9 29.94
601 23.0 29.49
61 23.71 29.03
Lake 8.0 27.53
River 24.15 31.06
1 27.46 9.84
2 32.99 3.45
3 29.41 27.27

